Version 4.1
SHEET 1 880 680
WIRE 96 -496 96 -528
WIRE 96 -496 32 -496
WIRE 32 -304 32 -496
WIRE 96 -304 32 -304
WIRE 96 -256 96 -304
WIRE 128 -256 96 -256
WIRE 96 -160 96 -192
WIRE 96 -160 48 -160
WIRE 96 -128 96 -160
WIRE 64 -96 16 -96
WIRE 160 -96 128 -96
WIRE 48 -48 48 -160
WIRE 80 -48 80 -64
WIRE 80 -48 48 -48
WIRE 192 16 176 16
WIRE 192 48 192 16
WIRE 32 96 -48 96
WIRE 80 96 32 96
WIRE 112 96 112 16
WIRE 112 96 80 96
WIRE 128 96 112 96
WIRE 192 96 192 48
WIRE 224 240 128 240
WIRE 176 256 176 224
WIRE 128 272 128 240
WIRE 144 272 128 272
WIRE 224 288 224 240
WIRE 224 288 208 288
WIRE 256 288 224 288
WIRE 112 304 112 96
WIRE 144 304 112 304
FLAG 32 160 0
FLAG -48 176 0
FLAG 176 144 0
FLAG 176 400 0
FLAG 192 48 v1
FLAG 80 96 v2
FLAG 208 -256 0
FLAG 96 -528 out
FLAG 176 -448 0
SYMBOL Digital\\schmtinv 128 32 R0
WINDOW 3 8 44 Invisible 2
SYMATTR Value Vhigh=9 Vt=4.45 Vh=.85 Trise=.1u Tfall=.1u
SYMATTR InstName A1
SYMBOL cap 16 96 R0
SYMATTR InstName C1
SYMATTR Value 2.2n
SYMBOL diode 176 0 R90
WINDOW 0 0 32 VBottom 2
WINDOW 3 32 32 VTop 2
SYMATTR InstName D1
SYMATTR Value 1N4148
SYMBOL res -64 80 R0
SYMATTR InstName R1
SYMATTR Value 1.5Meg
SYMBOL OpAmps\\UniversalOpAmp2 176 288 R0
SYMATTR InstName U1
SYMBOL voltage 176 416 R180
WINDOW 0 -32 56 VBottom 2
WINDOW 3 32 56 VTop 2
WINDOW 123 0 0 Left 0
WINDOW 39 0 0 Left 0
SYMATTR InstName V1
SYMATTR Value 12
SYMBOL voltage 176 240 R180
WINDOW 0 -32 56 VBottom 2
WINDOW 3 32 56 VTop 2
WINDOW 123 0 0 Left 0
WINDOW 39 0 0 Left 0
SYMATTR InstName V2
SYMATTR Value 12
SYMBOL cap 80 -256 R0
SYMATTR InstName C2
SYMATTR Value 1”
SYMBOL res 352 272 R90
WINDOW 0 0 56 VBottom 2
WINDOW 3 32 56 VTop 2
SYMATTR InstName R2
SYMATTR Value 1k
SYMBOL res 192 -464 R90
WINDOW 0 0 56 VBottom 2
WINDOW 3 32 56 VTop 2
SYMATTR InstName R3
SYMATTR Value 10k
SYMBOL res 80 -464 R0
SYMATTR InstName R4
SYMATTR Value 10k
TEXT -160 312 Left 2 !.tran 0 1 0.995
TEXT 384 40 Left 2 !.ic V(v1) 0
TEXT 384 72 Left 2 !.ic V(v2) 0
