Version 4.1
SHEET 1 944 848
WIRE 672 368 656 368
WIRE 832 368 752 368
WIRE 256 448 256 368
WIRE 544 448 256 448
WIRE 656 448 656 368
WIRE 656 448 624 448
WIRE 656 480 656 448
WIRE 688 480 656 480
WIRE 832 496 832 368
WIRE 880 496 832 496
WIRE 688 512 656 512
WIRE 256 544 256 448
WIRE 432 544 432 368
WIRE 544 544 432 544
WIRE 656 544 656 512
WIRE 656 544 624 544
WIRE 192 592 176 592
WIRE 368 592 352 592
WIRE 352 608 352 592
WIRE 656 640 656 624
WIRE 256 656 256 640
WIRE 336 656 256 656
WIRE 432 656 432 640
WIRE 432 656 336 656
WIRE 336 688 336 656
FLAG 176 592 SignalIn
FLAG 336 768 ControlIn
FLAG -176 304 VCC
FLAG -64 304 VEE
FLAG -176 384 0
FLAG -64 384 0
FLAG 352 608 0
FLAG 256 288 VCC
FLAG 432 288 VCC
FLAG 656 640 0
FLAG 720 464 VCC
FLAG 720 528 VEE
FLAG 880 496 Out
FLAG 48 384 0
FLAG 48 304 SignalIn
FLAG -288 384 0
FLAG -288 304 ControlIn
SYMBOL voltage -176 288 R0
WINDOW 123 0 0 Left 0
WINDOW 39 0 0 Left 0
SYMATTR InstName V1
SYMATTR Value 9
SYMBOL voltage -64 288 R0
WINDOW 123 0 0 Left 0
WINDOW 39 0 0 Left 0
SYMATTR InstName V2
SYMATTR Value -9
SYMBOL npn 192 544 R0
SYMATTR InstName Q1
SYMATTR Value 2N2222
SYMBOL npn 368 544 R0
SYMATTR InstName Q2
SYMATTR Value 2N2222
SYMBOL res 320 672 R0
SYMATTR InstName R1
SYMATTR Value 10k
SYMBOL res 640 432 R90
WINDOW 0 0 56 VBottom 2
WINDOW 3 32 56 VTop 2
SYMATTR InstName R2
SYMATTR Value 10k
SYMBOL res 640 528 R90
WINDOW 0 0 56 VBottom 2
WINDOW 3 32 56 VTop 2
SYMATTR InstName R3
SYMATTR Value 10k
SYMBOL res 240 272 R0
SYMATTR InstName R4
SYMATTR Value 100k
SYMBOL res 416 272 R0
SYMATTR InstName R5
SYMATTR Value 100k
SYMBOL OpAmps\\UniversalOpAmp2 720 496 R0
SYMATTR InstName U1
SYMBOL res 640 528 R0
SYMATTR InstName R6
SYMATTR Value 470k
SYMBOL res 768 352 R90
WINDOW 0 0 56 VBottom 2
WINDOW 3 32 56 VTop 2
SYMATTR InstName R7
SYMATTR Value 470k
SYMBOL voltage 48 288 R0
WINDOW 123 0 0 Left 0
WINDOW 39 0 0 Left 0
SYMATTR InstName V3
SYMATTR Value SINE(0 10m 440)
SYMBOL res 848 480 R90
WINDOW 0 0 56 VBottom 2
WINDOW 3 32 56 VTop 2
SYMATTR InstName R8
SYMATTR Value 1k
SYMBOL voltage -288 288 R0
WINDOW 123 0 0 Left 0
WINDOW 39 0 0 Left 0
SYMATTR InstName V4
SYMATTR Value -0.5
TEXT -304 464 Left 2 !.tran 5m
TEXT -360 232 Left 4 ;Range from 0 to -2 V
TEXT -24 232 Left 4 ;Nominal pp of 10mV
