Version 4.1
SHEET 1 1292 680
WIRE 336 -496 304 -496
WIRE 304 -480 304 -496
WIRE 336 -464 336 -496
WIRE 512 -400 512 -464
WIRE 528 -400 512 -400
WIRE 960 -400 960 -464
WIRE 976 -400 960 -400
WIRE 416 -384 336 -384
WIRE 736 -384 736 -448
WIRE 832 -384 816 -384
WIRE 1184 -384 1184 -448
WIRE 1280 -384 1264 -384
WIRE 528 -368 512 -368
WIRE 832 -368 832 -384
WIRE 976 -368 960 -368
WIRE 1280 -368 1280 -384
WIRE 608 -80 528 -80
WIRE 528 -32 528 -80
WIRE 544 -32 528 -32
WIRE 608 -16 608 -80
WIRE 656 -16 656 -80
WIRE 656 -16 608 -16
WIRE 800 -16 800 -80
WIRE 864 -16 800 -16
WIRE 960 -16 864 -16
WIRE 544 0 464 0
WIRE 1152 0 1104 0
WIRE 960 16 944 16
WIRE 656 48 656 -16
WIRE 800 48 800 -16
WIRE 944 64 944 16
WIRE 1104 64 1104 0
WIRE 1104 64 944 64
WIRE 160 96 112 96
WIRE 304 96 224 96
WIRE 400 112 400 0
WIRE 400 112 368 112
WIRE 304 128 288 128
WIRE 608 144 528 144
WIRE 288 176 288 128
WIRE 528 192 528 144
WIRE 544 192 528 192
WIRE 608 208 608 144
WIRE 656 208 656 144
WIRE 656 208 608 208
WIRE 800 208 800 144
WIRE 864 208 800 208
WIRE 960 208 864 208
WIRE 400 224 400 112
WIRE 544 224 464 224
WIRE 1152 224 1104 224
WIRE 960 240 944 240
WIRE 656 272 656 208
WIRE 800 272 800 208
WIRE 944 288 944 240
WIRE 1104 288 1104 224
WIRE 1104 288 944 288
FLAG 48 96 In
FLAG 288 176 TriggerRef
FLAG 336 144 VCC
FLAG 336 80 VEE
FLAG 304 -480 0
FLAG 336 -304 VEE
FLAG 416 -384 TriggerRef
FLAG 48 -352 0
FLAG 160 -352 0
FLAG 160 -432 VEE
FLAG 48 -432 VCC
FLAG 464 80 Sustain1
FLAG 464 304 Sustain2
FLAG 576 -48 VCC
FLAG 576 176 VCC
FLAG 576 16 VEE
FLAG 576 240 VEE
FLAG 864 48 0
FLAG 864 272 0
FLAG 992 -32 VEE
FLAG 992 32 VCC
FLAG 992 192 VEE
FLAG 992 256 VCC
FLAG 1152 0 Out1
FLAG 1152 224 Out2
FLAG 512 -464 TriggerRef
FLAG 512 -368 In
FLAG 832 -368 0
FLAG 736 -448 Sustain1
FLAG 560 -416 VCC
FLAG 560 -352 VEE
FLAG 960 -464 TriggerRef
FLAG 960 -368 In
FLAG 1280 -368 0
FLAG 1184 -448 Sustain2
FLAG 1008 -416 VCC
FLAG 1008 -352 VEE
FLAG 48 -160 0
FLAG 48 -240 In
FLAG 224 176 VEE
FLAG 112 176 VEE
SYMBOL cap 112 80 R90
WINDOW 0 0 32 VBottom 2
WINDOW 3 32 32 VTop 2
SYMATTR InstName C1
SYMATTR Value 1µ
SYMBOL res 96 80 R0
SYMATTR InstName R1
SYMATTR Value 50k
SYMBOL diode 160 112 R270
WINDOW 0 32 32 VTop 2
WINDOW 3 0 32 VBottom 2
SYMATTR InstName D1
SYMATTR Value 1N4148
SYMBOL res 208 80 R0
SYMATTR InstName R2
SYMATTR Value 50k
SYMBOL OpAmps\\UniversalOpAmp2 336 112 M180
SYMATTR InstName U1
SYMBOL res 320 -480 R0
SYMATTR InstName R3
SYMATTR Value 100k
SYMBOL res 320 -400 R0
SYMATTR InstName R4
SYMATTR Value 100k
SYMBOL voltage 48 -448 R0
WINDOW 123 0 0 Left 0
WINDOW 39 0 0 Left 0
SYMATTR InstName V1
SYMATTR Value 9
SYMBOL voltage 160 -336 R180
WINDOW 0 24 96 Left 2
WINDOW 3 24 16 Left 2
WINDOW 123 0 0 Left 0
WINDOW 39 0 0 Left 0
SYMATTR InstName V2
SYMATTR Value 9
SYMBOL diode 400 16 R270
WINDOW 0 32 32 VTop 2
WINDOW 3 0 32 VBottom 2
SYMATTR InstName D2
SYMATTR Value 1N4148
SYMBOL diode 400 240 R270
WINDOW 0 32 32 VTop 2
WINDOW 3 0 32 VBottom 2
SYMATTR InstName D3
SYMATTR Value 1N4148
SYMBOL res 448 -16 R0
SYMATTR InstName R5
SYMATTR Value 100k
SYMBOL res 448 208 R0
SYMATTR InstName R6
SYMATTR Value 100k
SYMBOL OpAmps\\UniversalOpAmp2 576 -16 R0
SYMATTR InstName U2
SYMBOL OpAmps\\UniversalOpAmp2 576 208 R0
SYMATTR InstName U3
SYMBOL diode 656 160 R270
WINDOW 0 32 32 VTop 2
WINDOW 3 0 32 VBottom 2
SYMATTR InstName D4
SYMATTR Value 1N4148
SYMBOL diode 720 256 R90
WINDOW 0 0 32 VBottom 2
WINDOW 3 32 32 VTop 2
SYMATTR InstName D5
SYMATTR Value 1N4148
SYMBOL diode 720 32 R90
WINDOW 0 0 32 VBottom 2
WINDOW 3 32 32 VTop 2
SYMATTR InstName D6
SYMATTR Value 1N4148
SYMBOL diode 656 -64 R270
WINDOW 0 32 32 VTop 2
WINDOW 3 0 32 VBottom 2
SYMATTR InstName D7
SYMATTR Value 1N4148
SYMBOL res 816 -96 R90
WINDOW 0 0 56 VBottom 2
WINDOW 3 32 56 VTop 2
SYMATTR InstName R7
SYMATTR Value 10k
SYMBOL res 816 32 R90
WINDOW 0 0 56 VBottom 2
WINDOW 3 32 56 VTop 2
SYMATTR InstName R8
SYMATTR Value 10k
SYMBOL res 816 128 R90
WINDOW 0 0 56 VBottom 2
WINDOW 3 32 56 VTop 2
SYMATTR InstName R9
SYMATTR Value 500k
SYMBOL res 816 256 R90
WINDOW 0 0 56 VBottom 2
WINDOW 3 32 56 VTop 2
SYMATTR InstName R10
SYMATTR Value 500k
SYMBOL cap 848 208 R0
SYMATTR InstName C2
SYMATTR Value 1µ
SYMBOL cap 848 -16 R0
SYMATTR InstName C3
SYMATTR Value 1µ
SYMBOL OpAmps\\UniversalOpAmp2 992 0 M180
SYMATTR InstName U4
SYMBOL res 1120 -16 R90
WINDOW 0 0 56 VBottom 2
WINDOW 3 32 56 VTop 2
SYMATTR InstName R11
SYMATTR Value 1k
SYMBOL OpAmps\\UniversalOpAmp2 992 224 M180
SYMATTR InstName U5
SYMBOL res 1120 208 R90
WINDOW 0 0 56 VBottom 2
WINDOW 3 32 56 VTop 2
SYMATTR InstName R12
SYMATTR Value 1k
SYMBOL OpAmps\\UniversalOpAmp2 560 -384 R0
SYMATTR InstName U6
SYMBOL diode 592 -368 R270
WINDOW 0 32 32 VTop 2
WINDOW 3 0 32 VBottom 2
SYMATTR InstName D8
SYMATTR Value 1N4148
SYMBOL res 752 -400 R90
WINDOW 0 0 56 VBottom 2
WINDOW 3 32 56 VTop 2
SYMATTR InstName R13
SYMATTR Value 50k
SYMBOL res 832 -400 R90
WINDOW 0 0 56 VBottom 2
WINDOW 3 32 56 VTop 2
SYMATTR InstName R14
SYMATTR Value 20k
SYMBOL OpAmps\\UniversalOpAmp2 1008 -384 R0
SYMATTR InstName U7
SYMBOL diode 1040 -368 R270
WINDOW 0 32 32 VTop 2
WINDOW 3 0 32 VBottom 2
SYMATTR InstName D9
SYMATTR Value 1N4148
SYMBOL res 1200 -400 R90
WINDOW 0 0 56 VBottom 2
WINDOW 3 32 56 VTop 2
SYMATTR InstName R15
SYMATTR Value 50k
SYMBOL res 1280 -400 R90
WINDOW 0 0 56 VBottom 2
WINDOW 3 32 56 VTop 2
SYMATTR InstName R16
SYMATTR Value 50k
SYMBOL voltage 48 -256 R0
WINDOW 123 0 0 Left 0
WINDOW 39 0 0 Left 0
SYMATTR InstName V3
SYMATTR Value PULSE(-9 0 0.5 0.1m 0.1m 4 0 1)
TEXT 8 376 Left 2 !.tran 0 5 0
