Version 4.1
SHEET 1 880 680
WIRE 336 144 272 144
WIRE 176 160 16 160
WIRE 336 176 272 176
WIRE 16 192 16 160
FLAG 16 272 0
SYMBOL voltage 16 176 R0
WINDOW 123 0 0 Left 0
WINDOW 39 0 0 Left 0
SYMATTR InstName V1
SYMATTR Value PULSE(-9 0 0 0.01m 0.01m 750m 1000m 1)
SYMBOL EnvelopeGenerator 240 176 R0
SYMATTR InstName X1
TEXT -16 288 Left 2 !.tran 0 1.25 0
