Version 4.1
SHEET 1 1356 680
WIRE 336 -496 304 -496
WIRE 304 -480 304 -496
WIRE 336 -464 336 -496
WIRE 512 -400 512 -464
WIRE 528 -400 512 -400
WIRE 960 -400 960 -464
WIRE 976 -400 960 -400
WIRE 416 -384 336 -384
WIRE 736 -384 736 -448
WIRE 832 -384 816 -384
WIRE 1184 -384 1184 -448
WIRE 1280 -384 1264 -384
WIRE 528 -368 512 -368
WIRE 832 -368 832 -384
WIRE 976 -368 960 -368
WIRE 1280 -368 1280 -384
WIRE 32 -272 32 -288
WIRE 608 -80 528 -80
WIRE 528 -32 528 -80
WIRE 544 -32 528 -32
WIRE 160 -16 112 -16
WIRE 304 -16 224 -16
WIRE 608 -16 608 -80
WIRE 656 -16 656 -80
WIRE 656 -16 608 -16
WIRE 800 -16 800 -80
WIRE 864 -16 800 -16
WIRE 960 -16 864 -16
WIRE 400 0 368 0
WIRE 544 0 464 0
WIRE 1152 0 1104 0
WIRE 304 16 288 16
WIRE 960 16 944 16
WIRE 656 48 656 -16
WIRE 800 48 800 -16
WIRE 288 64 288 16
WIRE 944 64 944 16
WIRE 1104 64 1104 0
WIRE 1104 64 944 64
WIRE 592 272 512 272
WIRE 512 320 512 272
WIRE 528 320 512 320
WIRE 64 336 48 336
WIRE 176 336 128 336
WIRE 320 336 240 336
WIRE 592 336 592 272
WIRE 640 336 640 272
WIRE 640 336 592 336
WIRE 784 336 784 272
WIRE 848 336 784 336
WIRE 944 336 848 336
WIRE 528 352 448 352
WIRE 1136 352 1088 352
WIRE 320 368 304 368
WIRE 944 368 928 368
WIRE 640 400 640 336
WIRE 784 400 784 336
WIRE 304 416 304 368
WIRE 928 416 928 368
WIRE 1088 416 1088 352
WIRE 1088 416 928 416
WIRE 128 448 128 336
FLAG 48 -16 In
FLAG 288 64 TriggerRef
FLAG 336 32 VCC
FLAG 336 -32 VEE
FLAG 304 -480 0
FLAG 336 -304 VEE
FLAG 416 -384 TriggerRef
FLAG 32 -336 0
FLAG 144 -336 0
FLAG 144 -416 VEE
FLAG 32 -416 VCC
FLAG 464 80 Sustain1
FLAG 448 432 Sustain2
FLAG 576 -48 VCC
FLAG 560 304 VCC
FLAG 576 16 VEE
FLAG 560 368 VEE
FLAG 864 48 0
FLAG 848 400 0
FLAG 992 -32 VEE
FLAG 992 32 VCC
FLAG 976 320 VEE
FLAG 976 384 VCC
FLAG 1152 0 Out1
FLAG 1136 352 Out2
FLAG 512 -464 TriggerRef
FLAG 512 -368 In
FLAG 832 -368 0
FLAG 736 -448 Sustain1
FLAG 560 -416 VCC
FLAG 560 -352 VEE
FLAG 960 -464 TriggerRef
FLAG 960 -368 In
FLAG 1280 -368 0
FLAG 1184 -448 Sustain2
FLAG 1008 -416 VCC
FLAG 1008 -352 VEE
FLAG 224 64 VEE
FLAG 112 64 VEE
FLAG 48 336 In
FLAG 304 416 TriggerRef
FLAG 352 384 VCC
FLAG 352 320 VEE
FLAG 240 416 VEE
FLAG 128 528 VEE
FLAG 32 -192 0
FLAG 32 -288 In
SYMBOL cap 112 -32 R90
WINDOW 0 0 32 VBottom 2
WINDOW 3 32 32 VTop 2
SYMATTR InstName C1
SYMATTR Value 1µ
SYMBOL res 96 -32 R0
SYMATTR InstName R1
SYMATTR Value 50k
SYMBOL diode 160 0 R270
WINDOW 0 32 32 VTop 2
WINDOW 3 0 32 VBottom 2
SYMATTR InstName D1
SYMATTR Value 1N4148
SYMBOL res 208 -32 R0
SYMATTR InstName R2
SYMATTR Value 50k
SYMBOL OpAmps\\UniversalOpAmp2 336 0 M180
SYMATTR InstName U1
SYMBOL res 320 -480 R0
SYMATTR InstName R3
SYMATTR Value 100k
SYMBOL res 320 -400 R0
SYMATTR InstName R4
SYMATTR Value 100k
SYMBOL voltage 32 -432 R0
WINDOW 123 0 0 Left 0
WINDOW 39 0 0 Left 0
SYMATTR InstName V1
SYMATTR Value 9
SYMBOL voltage 144 -320 R180
WINDOW 0 24 96 Left 2
WINDOW 3 24 16 Left 2
WINDOW 123 0 0 Left 0
WINDOW 39 0 0 Left 0
SYMATTR InstName V2
SYMATTR Value 9
SYMBOL diode 400 16 R270
WINDOW 0 32 32 VTop 2
WINDOW 3 0 32 VBottom 2
SYMATTR InstName D2
SYMATTR Value 1N4148
SYMBOL diode 384 368 R270
WINDOW 0 32 32 VTop 2
WINDOW 3 0 32 VBottom 2
SYMATTR InstName D3
SYMATTR Value 1N4148
SYMBOL res 448 -16 R0
SYMATTR InstName R5
SYMATTR Value 100k
SYMBOL res 432 336 R0
SYMATTR InstName R6
SYMATTR Value 100k
SYMBOL OpAmps\\UniversalOpAmp2 576 -16 R0
SYMATTR InstName U2
SYMBOL OpAmps\\UniversalOpAmp2 560 336 R0
SYMATTR InstName U3
SYMBOL diode 640 288 R270
WINDOW 0 32 32 VTop 2
WINDOW 3 0 32 VBottom 2
SYMATTR InstName D4
SYMATTR Value 1N4148
SYMBOL diode 704 384 R90
WINDOW 0 0 32 VBottom 2
WINDOW 3 32 32 VTop 2
SYMATTR InstName D5
SYMATTR Value 1N4148
SYMBOL diode 720 32 R90
WINDOW 0 0 32 VBottom 2
WINDOW 3 32 32 VTop 2
SYMATTR InstName D6
SYMATTR Value 1N4148
SYMBOL diode 656 -64 R270
WINDOW 0 32 32 VTop 2
WINDOW 3 0 32 VBottom 2
SYMATTR InstName D7
SYMATTR Value 1N4148
SYMBOL res 816 -96 R90
WINDOW 0 0 56 VBottom 2
WINDOW 3 32 56 VTop 2
SYMATTR InstName R7
SYMATTR Value 10k
SYMBOL res 816 32 R90
WINDOW 0 0 56 VBottom 2
WINDOW 3 32 56 VTop 2
SYMATTR InstName R8
SYMATTR Value 100k
SYMBOL res 800 256 R90
WINDOW 0 0 56 VBottom 2
WINDOW 3 32 56 VTop 2
SYMATTR InstName R9
SYMATTR Value 5k
SYMBOL res 800 384 R90
WINDOW 0 0 56 VBottom 2
WINDOW 3 32 56 VTop 2
SYMATTR InstName R10
SYMATTR Value 100k
SYMBOL cap 832 336 R0
SYMATTR InstName C2
SYMATTR Value 1µ
SYMBOL cap 848 -16 R0
SYMATTR InstName C3
SYMATTR Value 1µ
SYMBOL OpAmps\\UniversalOpAmp2 992 0 M180
SYMATTR InstName U4
SYMBOL res 1120 -16 R90
WINDOW 0 0 56 VBottom 2
WINDOW 3 32 56 VTop 2
SYMATTR InstName R11
SYMATTR Value 1k
SYMBOL OpAmps\\UniversalOpAmp2 976 352 M180
SYMATTR InstName U5
SYMBOL res 1104 336 R90
WINDOW 0 0 56 VBottom 2
WINDOW 3 32 56 VTop 2
SYMATTR InstName R12
SYMATTR Value 1k
SYMBOL OpAmps\\UniversalOpAmp2 560 -384 R0
SYMATTR InstName U6
SYMBOL diode 592 -368 R270
WINDOW 0 32 32 VTop 2
WINDOW 3 0 32 VBottom 2
SYMATTR InstName D8
SYMATTR Value 1N4148
SYMBOL res 752 -400 R90
WINDOW 0 0 56 VBottom 2
WINDOW 3 32 56 VTop 2
SYMATTR InstName R13
SYMATTR Value 50k
SYMBOL res 832 -400 R90
WINDOW 0 0 56 VBottom 2
WINDOW 3 32 56 VTop 2
SYMATTR InstName R14
SYMATTR Value 50k
SYMBOL OpAmps\\UniversalOpAmp2 1008 -384 R0
SYMATTR InstName U7
SYMBOL diode 1040 -368 R270
WINDOW 0 32 32 VTop 2
WINDOW 3 0 32 VBottom 2
SYMATTR InstName D9
SYMATTR Value 1N4148
SYMBOL res 1200 -400 R90
WINDOW 0 0 56 VBottom 2
WINDOW 3 32 56 VTop 2
SYMATTR InstName R15
SYMATTR Value 50k
SYMBOL res 1280 -400 R90
WINDOW 0 0 56 VBottom 2
WINDOW 3 32 56 VTop 2
SYMATTR InstName R16
SYMATTR Value 100k
SYMBOL cap 128 320 R90
WINDOW 0 0 32 VBottom 2
WINDOW 3 32 32 VTop 2
SYMATTR InstName C4
SYMATTR Value 4µ
SYMBOL res 112 432 R0
SYMATTR InstName R17
SYMATTR Value 300k
SYMBOL diode 176 352 R270
WINDOW 0 32 32 VTop 2
WINDOW 3 0 32 VBottom 2
SYMATTR InstName D10
SYMATTR Value 1N4148
SYMBOL res 224 320 R0
SYMATTR InstName R18
SYMATTR Value 50k
SYMBOL OpAmps\\UniversalOpAmp2 352 352 M180
SYMATTR InstName U8
SYMBOL voltage 32 -288 R0
WINDOW 123 0 0 Left 0
WINDOW 39 0 0 Left 0
SYMATTR InstName V3
SYMATTR Value PULSE(-9 0 0 0.01m 0.01m 750m 1000m 1)
TEXT 296 -560 Left 5 ;Set to 4.5 V
TEXT 504 -560 Left 5 ;Set to half the maximum (-3 dB)
TEXT 944 -560 Left 5 ;Also set to half the maximum (-3 dB)
TEXT 96 -144 Left 5 ;Envelope Output 1
TEXT 80 576 Left 5 ;Envelope Output 2
TEXT 672 8 Left 2 ;Controls release & decay
TEXT 568 -128 Left 2 ;According to Mortiz Klein, this top diode-resistor section controls the attack. However, in this simulation, it looks like it has no effect.
TEXT 672 336 Left 2 ;Same as above
TEXT 16 -72 Left 2 ;Controls how long the envelope will initially increase for (i.e. controls attack)
TEXT 0 600 Left 2 !.tran 1.25
