Version 4.1
SHEET 1 880 680
WIRE 288 112 144 112
FLAG 144 192 0
SYMBOL voltage 144 96 R0
WINDOW 123 0 0 Left 0
WINDOW 39 0 0 Left 0
SYMATTR InstName V1
SYMATTR Value PULSE(-50m 50m 0 0.1m 0.1m 4m 8m)
TEXT 104 208 Left 2 !.tran 0 5 4.975
