Version 4.1
SHEET 1 2384 1356
WIRE 0 400 -16 400
WIRE 1056 400 976 400
WIRE 1184 400 1136 400
WIRE 0 416 0 400
WIRE 976 464 976 400
WIRE 976 464 944 464
WIRE 1008 464 976 464
WIRE 1184 480 1184 400
WIRE 1184 480 1152 480
WIRE 1328 480 1184 480
WIRE 1008 496 976 496
WIRE 0 512 0 496
WIRE 80 512 0 512
WIRE 160 512 80 512
WIRE 1328 512 1328 480
WIRE 0 528 0 512
WIRE 80 528 80 512
WIRE 256 528 224 528
WIRE 160 544 144 544
WIRE 928 544 864 544
WIRE 144 576 144 544
WIRE 224 576 224 528
WIRE 224 576 144 576
WIRE 1328 576 1296 576
WIRE 1232 592 1232 576
WIRE 1328 592 1328 576
WIRE 80 624 80 592
WIRE 976 624 976 496
WIRE 976 624 928 624
WIRE 1328 672 1328 656
WIRE 1328 672 1296 672
WIRE 1472 672 1328 672
WIRE 1232 688 1232 672
WIRE 80 720 80 688
WIRE 1040 768 976 768
WIRE 1168 768 1120 768
WIRE 1328 768 1328 736
WIRE 1328 768 1296 768
WIRE 1232 784 1232 768
WIRE 944 848 944 800
WIRE 976 848 976 768
WIRE 976 848 944 848
WIRE 1008 848 976 848
WIRE 1168 864 1168 768
WIRE 1168 864 1152 864
WIRE 1328 864 1328 832
WIRE 1328 864 1168 864
WIRE 1008 880 976 880
WIRE 944 896 944 848
WIRE 976 896 976 880
WIRE 320 1136 288 1136
WIRE 96 1184 16 1184
WIRE 192 1200 160 1200
WIRE 288 1200 288 1136
WIRE 288 1200 272 1200
WIRE 304 1200 288 1200
WIRE 96 1216 80 1216
WIRE 400 1216 400 1136
WIRE 400 1216 368 1216
WIRE 544 1216 464 1216
WIRE 304 1232 288 1232
WIRE 640 1232 608 1232
WIRE 704 1232 640 1232
WIRE 288 1248 288 1232
WIRE 544 1248 528 1248
WIRE 80 1264 80 1216
WIRE 160 1264 160 1200
WIRE 160 1264 80 1264
WIRE 528 1296 528 1248
WIRE 640 1296 640 1232
WIRE 640 1296 528 1296
FLAG 0 608 0
FLAG 80 784 0
FLAG -48 192 0
FLAG 80 192 0
FLAG -48 112 VCC
FLAG 80 112 VEE
FLAG 192 560 VCC
FLAG 192 496 VEE
FLAG -16 400 ControlIn
FLAG 336 192 0
FLAG 336 112 SignalIn
FLAG 256 528 ProcessedControlIn
FLAG 208 192 0
FLAG 208 112 ControlIn
FLAG 864 464 SignalIn
FLAG 928 704 0
FLAG 864 544 ProcessedControlIn
FLAG 864 800 SignalIn
FLAG 864 896 ProcessedControlIn
FLAG 976 896 0
FLAG 1040 896 VEE
FLAG 1040 512 VEE
FLAG 1040 448 VCC
FLAG 1040 832 VCC
FLAG 1232 784 0
FLAG 1232 688 0
FLAG 1232 592 0
FLAG 1472 672 UnprocessedOut
FLAG 16 1184 UnprocessedOut
FLAG 128 1232 VCC
FLAG 128 1168 VEE
FLAG 288 1248 0
FLAG 336 1184 VCC
FLAG 336 1248 VEE
FLAG 464 1296 0
FLAG 576 1200 VEE
FLAG 576 1264 VCC
FLAG 704 1232 Out
SYMBOL voltage 336 96 R0
WINDOW 123 0 0 Left 0
WINDOW 39 0 0 Left 0
WINDOW 0 39 55 Left 2
WINDOW 3 39 70 Left 2
SYMATTR InstName V1
SYMATTR Value PULSE(-50m 50m 0 0.1m 0.1m 4m 8m)
SYMBOL res 16 512 R180
WINDOW 0 36 76 Left 2
WINDOW 3 36 40 Left 2
SYMATTR InstName R1
SYMATTR Value 100k
SYMBOL res -16 512 R0
SYMATTR InstName R5
SYMATTR Value 13k
SYMBOL diode 64 528 R0
SYMATTR InstName D1
SYMATTR Value 1N4148
SYMBOL diode 64 624 R0
SYMATTR InstName D2
SYMATTR Value 1N4148
SYMBOL diode 64 720 R0
SYMATTR InstName D3
SYMATTR Value 1N4148
SYMBOL OpAmps\\UniversalOpAmp2 192 528 M180
SYMATTR InstName U1
SYMBOL voltage -48 96 R0
WINDOW 123 0 0 Left 0
WINDOW 39 0 0 Left 0
SYMATTR InstName V3
SYMATTR Value 9
SYMBOL voltage 80 208 R180
WINDOW 0 24 96 Left 2
WINDOW 3 24 16 Left 2
WINDOW 123 0 0 Left 0
WINDOW 39 0 0 Left 0
SYMATTR InstName V2
SYMATTR Value 9
SYMBOL voltage 208 96 R0
WINDOW 123 0 0 Left 0
WINDOW 39 0 0 Left 0
SYMATTR InstName V4
SYMATTR Value 4
SYMBOL res 960 448 R90
WINDOW 0 0 56 VBottom 2
WINDOW 3 32 56 VTop 2
SYMATTR InstName R6
SYMATTR Value 50k
SYMBOL OpAmps\\UniversalOpAmp2 1040 480 R0
SYMATTR InstName U2
SYMBOL res 1152 384 R90
WINDOW 0 0 56 VBottom 2
WINDOW 3 32 56 VTop 2
SYMATTR InstName R7
SYMATTR Value 50k
SYMBOL res 1168 464 R90
WINDOW 0 0 56 VBottom 2
WINDOW 3 32 56 VTop 2
SYMATTR InstName R8
SYMATTR Value 2k
SYMBOL res 912 528 R0
SYMATTR InstName R9
SYMATTR Value 50k
SYMBOL res 912 608 R0
SYMATTR InstName R10
SYMATTR Value 50k
SYMBOL OpAmps\\UniversalOpAmp2 1040 864 R0
SYMATTR InstName U3
SYMBOL res 960 784 R90
WINDOW 0 0 56 VBottom 2
WINDOW 3 32 56 VTop 2
SYMATTR InstName R11
SYMATTR Value 50k
SYMBOL res 960 880 R90
WINDOW 0 0 56 VBottom 2
WINDOW 3 32 56 VTop 2
SYMATTR InstName R12
SYMATTR Value 50k
SYMBOL res 1136 752 R90
WINDOW 0 0 56 VBottom 2
WINDOW 3 32 56 VTop 2
SYMATTR InstName R13
SYMATTR Value 50k
SYMBOL res 1168 848 R90
WINDOW 0 0 56 VBottom 2
WINDOW 3 32 56 VTop 2
SYMATTR InstName R14
SYMATTR Value 2k
SYMBOL diode 1312 512 R0
SYMATTR InstName D4
SYMATTR Value 1N4148
SYMBOL diode 1312 592 R0
SYMATTR InstName D5
SYMATTR Value 1N4148
SYMBOL diode 1312 672 R0
SYMATTR InstName D6
SYMATTR Value 1N4148
SYMBOL diode 1312 768 R0
SYMATTR InstName D7
SYMATTR Value 1N4148
SYMBOL cap 1296 752 R90
WINDOW 0 0 32 VBottom 2
WINDOW 3 32 32 VTop 2
SYMATTR InstName C1
SYMATTR Value 1n
SYMBOL cap 1296 656 R90
WINDOW 0 0 32 VBottom 2
WINDOW 3 32 32 VTop 2
SYMATTR InstName C2
SYMATTR Value 1n
SYMBOL cap 1296 560 R90
WINDOW 0 0 32 VBottom 2
WINDOW 3 32 32 VTop 2
SYMATTR InstName C3
SYMATTR Value 1n
SYMBOL OpAmps\\UniversalOpAmp2 128 1200 M180
SYMATTR InstName U4
SYMBOL res 288 1184 R90
WINDOW 0 0 56 VBottom 2
WINDOW 3 32 56 VTop 2
SYMATTR InstName R15
SYMATTR Value 50k
SYMBOL OpAmps\\UniversalOpAmp2 336 1216 R0
SYMATTR InstName U5
SYMBOL res 416 1120 R90
WINDOW 0 0 56 VBottom 2
WINDOW 3 32 56 VTop 2
SYMATTR InstName R16
SYMATTR Value 50k
SYMBOL cap 464 1200 R90
WINDOW 0 0 32 VBottom 2
WINDOW 3 32 32 VTop 2
SYMATTR InstName C4
SYMATTR Value 1ｵ
SYMBOL res 448 1200 R0
SYMATTR InstName R17
SYMATTR Value 100k
SYMBOL OpAmps\\UniversalOpAmp2 576 1232 M180
SYMATTR InstName U6
TEXT -56 -64 Left 2 !.tran 0 5 4.975
TEXT -64 320 Left 5 ;Control Processing
TEXT 776 296 Left 5 ;The Actual Filtering
TEXT -64 1032 Left 5 ;Output Processing
TEXT -64 1064 Left 2 ;This amplifies the signal into the required pp voltage and provides a voltage follower at the end.
TEXT 776 328 Left 2 ;w/ a diode ladder
TEXT -64 352 Left 2 ;Attenuates the control signal such that its range satisfies the range required by the diode ladder.
