Version 4.1
SHEET 1 880 680
WIRE 208 112 192 112
WIRE 304 112 288 112
WIRE 224 288 192 288
WIRE 304 288 304 112
WIRE 384 288 304 288
WIRE 464 288 384 288
WIRE 384 304 384 288
WIRE 560 304 528 304
WIRE 464 320 448 320
WIRE 304 336 304 288
WIRE 448 352 448 320
WIRE 528 352 528 304
WIRE 528 352 448 352
FLAG 304 416 0
FLAG 384 496 0
FLAG -64 16 0
FLAG 64 16 0
FLAG -64 -64 VCC
FLAG 64 -64 VEE
FLAG 192 208 VCC
FLAG 192 368 VEE
FLAG 496 336 VCC
FLAG 496 272 VEE
FLAG 192 112 ControlIn
FLAG 192 16 0
FLAG 192 -64 SignalIn
SYMBOL voltage 192 -80 R0
WINDOW 123 0 0 Left 0
WINDOW 39 0 0 Left 0
WINDOW 0 39 55 Left 2
WINDOW 3 39 70 Left 2
SYMATTR InstName V1
SYMATTR Value PULSE(-50m 50m 0 0.1m 0.1m 4m 8m)
SYMBOL res 304 96 R90
WINDOW 0 0 56 VBottom 2
WINDOW 3 32 56 VTop 2
SYMATTR InstName R1
SYMBOL res 176 192 R0
SYMATTR InstName R2
SYMBOL res 176 272 R0
SYMATTR InstName R3
SYMBOL res 320 272 R90
WINDOW 0 0 56 VBottom 2
WINDOW 3 32 56 VTop 2
SYMATTR InstName R4
SYMBOL res 288 320 R0
SYMATTR InstName R5
SYMBOL diode 368 304 R0
SYMATTR InstName D1
SYMBOL diode 368 368 R0
SYMATTR InstName D2
SYMBOL diode 368 432 R0
SYMATTR InstName D3
SYMBOL OpAmps\\UniversalOpAmp2 496 304 M180
SYMATTR InstName U1
SYMBOL voltage -64 -80 R0
WINDOW 123 0 0 Left 0
WINDOW 39 0 0 Left 0
SYMATTR InstName V3
SYMATTR Value 9
SYMBOL voltage 64 32 R180
WINDOW 0 24 96 Left 2
WINDOW 3 24 16 Left 2
WINDOW 123 0 0 Left 0
WINDOW 39 0 0 Left 0
SYMATTR InstName V2
SYMATTR Value 9
TEXT -80 112 Left 2 !.tran 0 5 4.975
