Version 4.1
SHEET 1 880 680
WIRE -64 32 -112 32
WIRE 80 32 48 32
WIRE 256 32 208 32
WIRE -112 48 -112 32
WIRE 48 48 48 32
WIRE 208 48 208 32
WIRE 336 240 320 240
WIRE 336 256 336 240
WIRE 352 256 336 256
WIRE 176 272 160 272
WIRE 496 272 464 272
WIRE 352 288 288 288
WIRE 48 304 16 304
WIRE 176 304 144 304
FLAG 48 128 0
FLAG 496 272 V_out
FLAG 16 304 V_in
FLAG 160 272 FilterControl
FLAG 320 240 AmplifierControl
FLAG 80 32 AmplifierControl
FLAG 208 128 0
FLAG 256 32 FilterControl
FLAG -112 128 0
FLAG -64 32 V_in
SYMBOL voltage 48 32 R0
WINDOW 3 21 91 Left 2
WINDOW 123 0 0 Left 0
WINDOW 39 0 0 Left 0
SYMATTR Value -1.25
SYMATTR InstName V1
SYMBOL Amplifier 400 272 R0
SYMATTR InstName X1
SYMBOL Oscillator 80 320 R0
SYMATTR InstName X2
SYMBOL Filter 192 304 R0
SYMATTR InstName X3
SYMBOL voltage 208 32 R0
WINDOW 123 0 0 Left 0
WINDOW 39 0 0 Left 0
SYMATTR InstName V2
SYMATTR Value 6
SYMBOL voltage -112 32 R0
WINDOW 123 0 0 Left 0
WINDOW 39 0 0 Left 0
SYMATTR InstName V3
SYMATTR Value 2.5
TEXT -128 208 Left 2 !.tran 0 5 4.98
