Version 4.1
SHEET 1 880 680
WIRE 256 96 80 96
WIRE 416 112 368 112
WIRE 256 128 192 128
WIRE 80 144 80 96
WIRE 192 144 192 128
FLAG 80 224 0
FLAG 192 224 0
SYMBOL Filter 272 128 R0
SYMATTR InstName X1
SYMBOL voltage 80 128 R0
WINDOW 123 0 0 Left 0
WINDOW 39 0 0 Left 0
SYMATTR InstName V1
SYMATTR Value 4
SYMBOL voltage 192 128 R0
WINDOW 123 0 0 Left 0
WINDOW 39 0 0 Left 0
SYMATTR InstName V2
SYMATTR Value PULSE(-50m 50m 0 0.1m 0.1m 4m 8m)
TEXT 40 240 Left 2 !.tran 0 5 4.975
